/*--------------------------------*- C++ -*----------------------------------*\
| =========                 |                                                 |
| \\      /  F ield         | OpenFOAM: The Open Source CFD Toolbox           |
|  \\    /   O peration     | Version:  2406                                  |
|   \\  /    A nd           | Website:  www.openfoam.com                      |
|    \\/     M anipulation  |                                                 |
\*---------------------------------------------------------------------------*/
FoamFile
{
    version     2.0;
    format      ascii;
    arch        "LSB;label=32;scalar=64";
    class       polyBoundaryMesh;
    location    "constant/polyMesh";
    object      boundary;
}
// * * * * * * * * * * * * * * * * * * * * * * * * * * * * * * * * * * * * * //

6
(
    inlet
    {
        type            patch;
        nFaces          30;
        startFace       3943;
    }
    outlet
    {
        type            patch;
        nFaces          0;
        startFace       3973;
    }
    upperWall
    {
        type            wall;
        inGroups        1(wall);
        nFaces          44;
        startFace       3973;
    }
    lowerWall
    {
        type            wall;
        inGroups        1(wall);
        nFaces          71;
        startFace       4017;
    }
    frontAndBack
    {
        type            empty;
        inGroups        1(empty);
        nFaces          4044;
        startFace       4088;
    }
    procBoundary2to1
    {
        type            processor;
        inGroups        1(processor);
        nFaces          57;
        startFace       8132;
        matchTolerance  0.0001;
        transform       unknown;
        myProcNo        2;
        neighbProcNo    1;
    }
)

// ************************************************************************* //
