/*--------------------------------*- C++ -*----------------------------------*\
| =========                 |                                                 |
| \\      /  F ield         | OpenFOAM: The Open Source CFD Toolbox           |
|  \\    /   O peration     | Version:  2406                                  |
|   \\  /    A nd           | Website:  www.openfoam.com                      |
|    \\/     M anipulation  |                                                 |
\*---------------------------------------------------------------------------*/
FoamFile
{
    version     2.0;
    format      ascii;
    arch        "LSB;label=32;scalar=64";
    class       polyBoundaryMesh;
    location    "constant/polyMesh";
    object      boundary;
}
// * * * * * * * * * * * * * * * * * * * * * * * * * * * * * * * * * * * * * //

7
(
    inlet
    {
        type            patch;
        nFaces          0;
        startFace       3983;
    }
    outlet
    {
        type            patch;
        nFaces          0;
        startFace       3983;
    }
    upperWall
    {
        type            wall;
        inGroups        1(wall);
        nFaces          34;
        startFace       3983;
    }
    lowerWall
    {
        type            wall;
        inGroups        1(wall);
        nFaces          36;
        startFace       4017;
    }
    frontAndBack
    {
        type            empty;
        inGroups        1(empty);
        nFaces          4076;
        startFace       4053;
    }
    procBoundary0to1
    {
        type            processor;
        inGroups        1(processor);
        nFaces          57;
        startFace       8129;
        matchTolerance  0.0001;
        transform       unknown;
        myProcNo        0;
        neighbProcNo    1;
    }
    procBoundary0to3
    {
        type            processor;
        inGroups        1(processor);
        nFaces          59;
        startFace       8186;
        matchTolerance  0.0001;
        transform       unknown;
        myProcNo        0;
        neighbProcNo    3;
    }
)

// ************************************************************************* //
