/*--------------------------------*- C++ -*----------------------------------*\
| =========                 |                                                 |
| \\      /  F ield         | OpenFOAM: The Open Source CFD Toolbox           |
|  \\    /   O peration     | Version:  2406                                  |
|   \\  /    A nd           | Website:  www.openfoam.com                      |
|    \\/     M anipulation  |                                                 |
\*---------------------------------------------------------------------------*/
FoamFile
{
    version     2.0;
    format      ascii;
    arch        "LSB;label=32;scalar=64";
    class       polyBoundaryMesh;
    location    "constant/polyMesh";
    object      boundary;
}
// * * * * * * * * * * * * * * * * * * * * * * * * * * * * * * * * * * * * * //

6
(
    inlet
    {
        type            patch;
        nFaces          0;
        startFace       3979;
    }
    outlet
    {
        type            patch;
        nFaces          57;
        startFace       3979;
    }
    upperWall
    {
        type            wall;
        inGroups        1(wall);
        nFaces          35;
        startFace       4036;
    }
    lowerWall
    {
        type            wall;
        inGroups        1(wall);
        nFaces          38;
        startFace       4071;
    }
    frontAndBack
    {
        type            empty;
        inGroups        1(empty);
        nFaces          4074;
        startFace       4109;
    }
    procBoundary4to5
    {
        type            processor;
        inGroups        1(processor);
        nFaces          60;
        startFace       8183;
        matchTolerance  0.0001;
        transform       unknown;
        myProcNo        4;
        neighbProcNo    5;
    }
)

// ************************************************************************* //
