/*--------------------------------*- C++ -*----------------------------------*\
| =========                 |                                                 |
| \\      /  F ield         | OpenFOAM: The Open Source CFD Toolbox           |
|  \\    /   O peration     | Version:  2406                                  |
|   \\  /    A nd           | Website:  www.openfoam.com                      |
|    \\/     M anipulation  |                                                 |
\*---------------------------------------------------------------------------*/
FoamFile
{
    version     2.0;
    format      ascii;
    arch        "LSB;label=32;scalar=64";
    class       polyBoundaryMesh;
    location    "constant/polyMesh";
    object      boundary;
}
// * * * * * * * * * * * * * * * * * * * * * * * * * * * * * * * * * * * * * //

7
(
    inlet
    {
        type            patch;
        nFaces          0;
        startFace       3984;
    }
    outlet
    {
        type            patch;
        nFaces          0;
        startFace       3984;
    }
    upperWall
    {
        type            wall;
        inGroups        1(wall);
        nFaces          37;
        startFace       3984;
    }
    lowerWall
    {
        type            wall;
        inGroups        1(wall);
        nFaces          33;
        startFace       4021;
    }
    frontAndBack
    {
        type            empty;
        inGroups        1(empty);
        nFaces          4078;
        startFace       4054;
    }
    procBoundary5to3
    {
        type            processor;
        inGroups        1(processor);
        nFaces          58;
        startFace       8132;
        matchTolerance  0.0001;
        transform       unknown;
        myProcNo        5;
        neighbProcNo    3;
    }
    procBoundary5to4
    {
        type            processor;
        inGroups        1(processor);
        nFaces          60;
        startFace       8190;
        matchTolerance  0.0001;
        transform       unknown;
        myProcNo        5;
        neighbProcNo    4;
    }
)

// ************************************************************************* //
