/*--------------------------------*- C++ -*----------------------------------*\
| =========                 |                                                 |
| \\      /  F ield         | OpenFOAM: The Open Source CFD Toolbox           |
|  \\    /   O peration     | Version:  2406                                  |
|   \\  /    A nd           | Website:  www.openfoam.com                      |
|    \\/     M anipulation  |                                                 |
\*---------------------------------------------------------------------------*/
FoamFile
{
    version     2.0;
    format      ascii;
    arch        "LSB;label=32;scalar=64";
    class       polyBoundaryMesh;
    location    "constant/polyMesh";
    object      boundary;
}
// * * * * * * * * * * * * * * * * * * * * * * * * * * * * * * * * * * * * * //

7
(
    inlet
    {
        type            patch;
        nFaces          0;
        startFace       3979;
    }
    outlet
    {
        type            patch;
        nFaces          0;
        startFace       3979;
    }
    upperWall
    {
        type            wall;
        inGroups        1(wall);
        nFaces          37;
        startFace       3979;
    }
    lowerWall
    {
        type            wall;
        inGroups        1(wall);
        nFaces          36;
        startFace       4016;
    }
    frontAndBack
    {
        type            empty;
        inGroups        1(empty);
        nFaces          4074;
        startFace       4052;
    }
    procBoundary3to0
    {
        type            processor;
        inGroups        1(processor);
        nFaces          59;
        startFace       8126;
        matchTolerance  0.0001;
        transform       unknown;
        myProcNo        3;
        neighbProcNo    0;
    }
    procBoundary3to5
    {
        type            processor;
        inGroups        1(processor);
        nFaces          58;
        startFace       8185;
        matchTolerance  0.0001;
        transform       unknown;
        myProcNo        3;
        neighbProcNo    5;
    }
)

// ************************************************************************* //
