/*--------------------------------*- C++ -*----------------------------------*\
| =========                 |                                                 |
| \\      /  F ield         | OpenFOAM: The Open Source CFD Toolbox           |
|  \\    /   O peration     | Version:  2406                                  |
|   \\  /    A nd           | Website:  www.openfoam.com                      |
|    \\/     M anipulation  |                                                 |
\*---------------------------------------------------------------------------*/
FoamFile
{
    version     2.0;
    format      ascii;
    arch        "LSB;label=32;scalar=64";
    class       polyBoundaryMesh;
    location    "constant/polyMesh";
    object      boundary;
}
// * * * * * * * * * * * * * * * * * * * * * * * * * * * * * * * * * * * * * //

7
(
    inlet
    {
        type            patch;
        nFaces          0;
        startFace       4011;
    }
    outlet
    {
        type            patch;
        nFaces          0;
        startFace       4011;
    }
    upperWall
    {
        type            wall;
        inGroups        1(wall);
        nFaces          36;
        startFace       4011;
    }
    lowerWall
    {
        type            wall;
        inGroups        1(wall);
        nFaces          36;
        startFace       4047;
    }
    frontAndBack
    {
        type            empty;
        inGroups        1(empty);
        nFaces          4104;
        startFace       4083;
    }
    procBoundary1to0
    {
        type            processor;
        inGroups        1(processor);
        nFaces          57;
        startFace       8187;
        matchTolerance  0.0001;
        transform       unknown;
        myProcNo        1;
        neighbProcNo    0;
    }
    procBoundary1to2
    {
        type            processor;
        inGroups        1(processor);
        nFaces          57;
        startFace       8244;
        matchTolerance  0.0001;
        transform       unknown;
        myProcNo        1;
        neighbProcNo    2;
    }
)

// ************************************************************************* //
