/*--------------------------------*- C++ -*----------------------------------*\
| =========                 |                                                 |
| \\      /  F ield         | OpenFOAM: The Open Source CFD Toolbox           |
|  \\    /   O peration     | Version:  dev                                   |
|   \\  /    A nd           | Web:      www.OpenFOAM.org                      |
|    \\/     M anipulation  |                                                 |
\*---------------------------------------------------------------------------*/
FoamFile
{
    version     2.0;
    format      binary;
    class       volScalarField;
    location    "0";
    object      p;
}
// * * * * * * * * * * * * * * * * * * * * * * * * * * * * * * * * * * * * * //

dimensions      [0 2 -2 0 0 0 0];

internalField   uniform 0;

boundaryField
{
    inlet
    {
        type            totalPressure;
        rho             none;
        psi             none;
        gamma           1.4;
        p0              uniform 0;
        value           uniform 0;
    }
    outlet
    {
        type            fixedValue;
        value           uniform 1;
    }
    impeller
    {
        type            zeroGradient;
    }
    inletPipe
    {
        type            zeroGradient;
    }
    pumpCase
    {
        type            zeroGradient;
    }
    topBottom
    {
        type            zeroGradient;
    }
}


// ************************************************************************* //
